10

 N                 -1.08940200   -2.39725444    0.00000000
 H                 -0.08984200   -2.42692044    0.00000000
 C                 -1.77635600   -1.12144244    0.00000000
 H                 -2.40118900   -1.04463944   -0.88982300
 C                 -2.66297900   -0.97532044    1.23214100
 C                 -0.78587700    0.03416856    0.00000000
 H                 -3.40721400   -1.77164244    1.24137300
 H                 -2.05020600   -1.04096844    2.13119600
 S                 -3.58600600    0.57587156    1.36603300
 O                  0.45104900   -0.19731644    0.00000000

