16

  N   -1.31314893672990     -4.18837963751859      0.00327306684312
  H   -0.31384699975749     -4.21433684966889      0.03014540092683
  C   -2.00502410836331     -2.91523166667364      0.00102532317244
  H   -2.60571388024650     -2.82916144753995     -0.90443790760898
  C   -2.92544022442130     -2.78846043291433      1.21031712219959
  C   -1.01961337195858     -1.75605426236180      0.04296416265552
  H   -3.66641062634961     -3.58758904880023      1.18896268685178
  H   -2.33710245486016     -2.86354164959172      2.12482342857039
  C   -3.62627760163708     -1.45151778644125      1.17144276919880
  O   0.21778429973925     -1.98293188907133      0.07370134836757
  H   -2.88591748262778     -0.65183428093588      1.19323702243114
  H   -4.21522665493789     -1.37588068630649      0.25737626540108
  C   -4.54790103844326     -1.32457993071304      2.38232060042404
  O   -4.05843052336501     -0.82076093441360      3.42835373353057
  O   -5.73259370158475     -1.73264324501160      2.24970868471492
  H   -6.21932225445662     -1.85044053203764      3.08960829232119
